<?xml version="1.0" encoding="UTF-8"?>

<!-- generated on Di 09 Jan 2024 11:38:55 CET by Eclipse SUMO netedit Version 1.2.0
<configuration xmlns:xsi="http://www.w3.org/2001/XMLSchema-instance" xsi:noNamespaceSchemaLocation="http://sumo.dlr.de/xsd/netconvertConfiguration.xsd">

    <input>
        <sumo-net-file value="EdgeIRTSystemX.net.xml"/>
    </input>

    <output>
        <output-file value="EdgeIRTSystemX.net.xml"/>
    </output>

    <processing>
        <geometry.max-grade.fix value="false"/>
        <offset.disable-normalization value="true"/>
        <lefthand value="false"/>
    </processing>

    <junctions>
        <no-turnarounds value="true"/>
        <junctions.corner-detail value="0"/>
        <junctions.limit-turn-speed value="-1"/>
        <rectangular-lane-cut value="false"/>
    </junctions>

    <pedestrian>
        <walkingareas value="false"/>
    </pedestrian>

</configuration>
-->

<net version="1.1" xmlns:xsi="http://www.w3.org/2001/XMLSchema-instance" xsi:noNamespaceSchemaLocation="http://sumo.dlr.de/xsd/net_file.xsd">

    <location netOffset="-439116.92,-5395387.71" convBoundary="0.00,0.00,3275.45,1362.34" origBoundary="2.172298,48.708669,2.217279,48.722256" projParameter="+proj=utm +zone=31 +ellps=WGS84 +datum=WGS84 +units=m +no_defs"/>

    <type id="highway.bridleway" priority="1" numLanes="1" speed="2.78" allow="pedestrian" oneway="1" width="2.00"/>
    <type id="highway.bus_guideway" priority="1" numLanes="1" speed="8.33" allow="bus" oneway="1"/>
    <type id="highway.cycleway" priority="1" numLanes="1" speed="5.56" allow="bicycle" oneway="0" width="1.00"/>
    <type id="highway.footway" priority="1" numLanes="1" speed="8.33" allow="pedestrian" oneway="1" width="2.00"/>
    <type id="highway.ford" priority="1" numLanes="1" speed="2.78" allow="army" oneway="0"/>
    <type id="highway.living_street" priority="3" numLanes="1" speed="2.78" disallow="tram rail_urban rail rail_electric ship" oneway="0"/>
    <type id="highway.motorway" priority="13" numLanes="2" speed="44.44" allow="private emergency authority army vip passenger hov taxi bus coach delivery truck trailer motorcycle evehicle custom1 custom2" oneway="1"/>
    <type id="highway.motorway_link" priority="12" numLanes="1" speed="22.22" allow="private emergency authority army vip passenger hov taxi bus coach delivery truck trailer motorcycle evehicle custom1 custom2" oneway="1"/>
    <type id="highway.path" priority="1" numLanes="1" speed="2.78" allow="bicycle pedestrian" oneway="1" width="2.00"/>
    <type id="highway.pedestrian" priority="1" numLanes="1" speed="8.33" allow="pedestrian" oneway="1" width="2.00"/>
    <type id="highway.primary" priority="9" numLanes="2" speed="27.78" disallow="tram rail_urban rail rail_electric ship" oneway="0"/>
    <type id="highway.primary_link" priority="8" numLanes="1" speed="22.22" disallow="tram rail_urban rail rail_electric ship" oneway="0"/>
    <type id="highway.raceway" priority="14" numLanes="2" speed="83.33" allow="vip" oneway="0"/>
    <type id="highway.residential" priority="4" numLanes="1" speed="13.89" disallow="tram rail_urban rail rail_electric ship" oneway="0"/>
    <type id="highway.secondary" priority="7" numLanes="2" speed="27.78" disallow="tram rail_urban rail rail_electric ship" oneway="0"/>
    <type id="highway.secondary_link" priority="6" numLanes="1" speed="22.22" disallow="tram rail_urban rail rail_electric ship" oneway="0"/>
    <type id="highway.service" priority="2" numLanes="1" speed="5.56" allow="delivery bicycle pedestrian" oneway="0"/>
    <type id="highway.services" priority="1" numLanes="1" speed="8.33" disallow="tram rail_urban rail rail_electric ship" oneway="0"/>
    <type id="highway.stairs" priority="1" numLanes="1" speed="1.39" allow="pedestrian" oneway="1" width="2.00"/>
    <type id="highway.step" priority="1" numLanes="1" speed="1.39" allow="pedestrian" oneway="1" width="2.00"/>
    <type id="highway.steps" priority="1" numLanes="1" speed="1.39" allow="pedestrian" oneway="1" width="2.00"/>
    <type id="highway.tertiary" priority="6" numLanes="1" speed="22.22" disallow="tram rail_urban rail rail_electric ship" oneway="0"/>
    <type id="highway.tertiary_link" priority="5" numLanes="1" speed="22.22" disallow="tram rail_urban rail rail_electric ship" oneway="0"/>
    <type id="highway.track" priority="1" numLanes="1" speed="5.56" disallow="tram rail_urban rail rail_electric ship" oneway="0"/>
    <type id="highway.trunk" priority="11" numLanes="2" speed="27.78" disallow="tram rail_urban rail rail_electric bicycle pedestrian ship" oneway="0"/>
    <type id="highway.trunk_link" priority="10" numLanes="1" speed="22.22" disallow="tram rail_urban rail rail_electric bicycle pedestrian ship" oneway="0"/>
    <type id="highway.unclassified" priority="5" numLanes="1" speed="13.89" disallow="tram rail_urban rail rail_electric ship" oneway="0"/>
    <type id="highway.unsurfaced" priority="1" numLanes="1" speed="8.33" disallow="tram rail_urban rail rail_electric ship" oneway="0"/>
    <type id="railway.light_rail" priority="15" numLanes="1" speed="27.78" allow="rail_urban" oneway="1"/>
    <type id="railway.preserved" priority="15" numLanes="1" speed="27.78" allow="rail" oneway="1"/>
    <type id="railway.rail" priority="15" numLanes="1" speed="83.33" allow="rail rail_electric" oneway="1"/>
    <type id="railway.subway" priority="15" numLanes="1" speed="27.78" allow="rail_urban" oneway="1"/>
    <type id="railway.tram" priority="15" numLanes="1" speed="13.89" allow="tram" oneway="1"/>

    <edge id=":1114038304_0" function="internal">
        <lane id=":1114038304_0_0" index="0" allow="delivery bicycle pedestrian" speed="5.56" length="0.31" shape="1405.14,409.60 1404.85,409.49"/>
    </edge>
    <edge id=":1114038304_1" function="internal">
        <lane id=":1114038304_1_0" index="0" allow="delivery bicycle pedestrian" speed="5.56" length="2.34" shape="1405.14,409.60 1404.29,408.44 1404.19,407.55"/>
    </edge>
    <edge id=":1114038304_4" function="internal">
        <lane id=":1114038304_4_0" index="0" allow="delivery bicycle pedestrian" speed="5.56" length="2.34" shape="1404.19,407.55 1404.84,406.93 1406.24,406.60"/>
    </edge>
    <edge id=":1114038304_2" function="internal">
        <lane id=":1114038304_2_0" index="0" allow="delivery bicycle pedestrian" speed="5.56" length="0.25" shape="1406.01,406.51 1406.24,406.60"/>
    </edge>
    <edge id=":1114038304_3" function="internal">
        <lane id=":1114038304_3_0" index="0" allow="delivery bicycle pedestrian" speed="5.56" length="2.34" shape="1406.01,406.51 1406.84,407.69 1406.92,408.58"/>
    </edge>
    <edge id=":1114038304_5" function="internal">
        <lane id=":1114038304_5_0" index="0" allow="delivery bicycle pedestrian" speed="5.56" length="2.34" shape="1406.92,408.58 1406.26,409.18 1404.85,409.49"/>
    </edge>
    <edge id=":1114038331_0" function="internal">
        <lane id=":1114038331_0_0" index="0" allow="delivery bicycle pedestrian" speed="5.56" length="0.31" shape="1217.80,1100.63 1217.49,1100.62"/>
    </edge>
    <edge id=":1114038331_1" function="internal">
        <lane id=":1114038331_1_0" index="0" disallow="tram rail_urban rail rail_electric ship" speed="5.56" length="2.34" shape="1217.80,1100.63 1216.62,1099.80 1216.24,1098.99"/>
    </edge>
    <edge id=":1114038331_4" function="internal">
        <lane id=":1114038331_4_0" index="0" disallow="tram rail_urban rail rail_electric ship" speed="5.56" length="2.34" shape="1216.24,1098.99 1216.66,1098.20 1217.88,1097.43"/>
    </edge>
    <edge id=":1114038331_2" function="internal">
        <lane id=":1114038331_2_0" index="0" disallow="tram rail_urban rail rail_electric ship" speed="5.56" length="0.29" shape="1217.59,1097.43 1217.88,1097.43"/>
    </edge>
    <edge id=":1114038331_3" function="internal">
        <lane id=":1114038331_3_0" index="0" allow="delivery bicycle pedestrian" speed="5.56" length="2.34" shape="1217.59,1097.43 1218.77,1098.26 1219.14,1099.08"/>
    </edge>
    <edge id=":1114038331_5" function="internal">
        <lane id=":1114038331_5_0" index="0" allow="delivery bicycle pedestrian" speed="5.56" length="2.34" shape="1219.14,1099.08 1218.71,1099.86 1217.49,1100.62"/>
    </edge>
    <edge id=":1114038385_0" function="internal">
        <lane id=":1114038385_0_0" index="0" allow="bicycle" speed="4.17" length="3.68" width="1.00" shape="1408.06,416.11 1406.99,415.77 1406.11,415.78 1405.40,416.14 1404.88,416.86"/>
    </edge>
    <edge id=":1114038385_1" function="internal">
        <lane id=":1114038385_1_0" index="0" allow="bicycle" speed="4.17" length="3.69" width="1.00" shape="1408.47,415.20 1407.21,414.53 1406.49,413.89 1406.29,413.28 1406.64,412.71"/>
    </edge>
    <edge id=":1114038385_2" function="internal">
        <lane id=":1114038385_2_0" index="0" allow="bicycle" speed="5.56" length="4.22" width="1.00" shape="1407.31,413.46 1406.40,414.31 1405.86,414.98 1405.43,415.73 1404.88,416.86"/>
    </edge>
    <edge id=":1114038385_3" function="internal">
        <lane id=":1114038385_3_0" index="0" allow="bicycle" speed="5.56" length="0.73" width="1.00" shape="1407.31,413.46 1406.86,413.52 1406.60,413.42"/>
    </edge>
    <edge id=":1114038385_6" function="internal">
        <lane id=":1114038385_6_0" index="0" allow="bicycle" speed="5.56" length="0.73" width="1.00" shape="1406.60,413.42 1406.53,413.15 1406.64,412.71"/>
    </edge>
    <edge id=":1114038385_4" function="internal">
        <lane id=":1114038385_4_0" index="0" allow="bicycle" speed="5.56" length="4.61" width="1.00" shape="1403.98,416.42 1404.58,415.19 1405.05,414.37 1405.65,413.65 1406.64,412.71"/>
    </edge>
    <edge id=":1114038385_5" function="internal">
        <lane id=":1114038385_5_0" index="0" allow="bicycle" speed="5.56" length="0.73" width="1.00" shape="1403.98,416.42 1404.37,416.19 1404.65,416.19"/>
    </edge>
    <edge id=":1114038385_7" function="internal">
        <lane id=":1114038385_7_0" index="0" allow="bicycle" speed="5.56" length="0.73" width="1.00" shape="1404.65,416.19 1404.82,416.41 1404.88,416.86"/>
    </edge>
    <edge id=":1114113629_0" function="internal">
        <lane id=":1114113629_0_0" index="0" allow="delivery bicycle pedestrian" speed="5.56" length="7.27" shape="1160.67,398.87 1159.72,396.58 1158.68,394.91 1157.55,393.86 1156.34,393.43"/>
    </edge>
    <edge id=":1114113629_1" function="internal">
        <lane id=":1114113629_1_0" index="0" allow="delivery bicycle pedestrian" speed="5.56" length="12.71" shape="1160.67,398.87 1159.92,395.19 1160.67,392.69 1162.92,391.37 1166.67,391.23"/>
    </edge>
    <edge id=":1114113629_2" function="internal">
        <lane id=":1114113629_2_0" index="0" allow="delivery bicycle pedestrian" speed="5.56" length="4.67" shape="1160.67,398.87 1161.03,397.47 1161.65,396.83 1162.54,396.94 1163.69,397.80"/>
    </edge>
    <edge id=":1114113629_3" function="internal">
        <lane id=":1114113629_3_0" index="0" allow="delivery bicycle pedestrian" speed="5.56" length="5.65" shape="1166.35,394.41 1164.69,394.48 1163.69,395.06 1163.36,396.17 1163.69,397.80"/>
    </edge>
    <edge id=":1114113629_4" function="internal">
        <lane id=":1114113629_4_0" index="0" allow="delivery bicycle pedestrian" speed="5.56" length="10.06" shape="1166.35,394.41 1156.34,393.43"/>
    </edge>
    <edge id=":1114113629_5" function="internal">
        <lane id=":1114113629_5_0" index="0" allow="delivery bicycle pedestrian" speed="5.56" length="4.67" shape="1166.35,394.41 1165.24,393.50 1164.92,392.67 1165.40,391.91 1166.67,391.23"/>
    </edge>
    <edge id=":1114113629_6" function="internal">
        <lane id=":1114113629_6_0" index="0" allow="delivery bicycle pedestrian" speed="5.56" length="10.07" shape="1156.65,390.24 1166.67,391.23"/>
    </edge>
    <edge id=":1114113629_7" function="internal">
        <lane id=":1114113629_7_0" index="0" allow="delivery bicycle pedestrian" speed="5.56" length="10.89" shape="1156.65,390.24 1158.79,390.88 1160.68,392.36 1162.31,394.66 1163.69,397.80"/>
    </edge>
    <edge id=":1114113629_8" function="internal">
        <lane id=":1114113629_8_0" index="0" allow="delivery bicycle pedestrian" speed="5.56" length="4.67" shape="1156.65,390.24 1157.77,391.16 1158.09,391.99 1157.61,392.75 1156.34,393.43"/>
    </edge>
    <edge id=":1114113633_0" function="internal">
        <lane id=":1114113633_0_0" index="0" allow="delivery bicycle pedestrian" speed="5.56" length="8.44" shape="1442.33,377.19 1439.95,377.80 1438.19,377.70 1436.43,377.60 1434.04,378.19"/>
    </edge>
    <edge id=":1114113633_1" function="internal">
        <lane id=":1114113633_1_0" index="0" allow="delivery bicycle pedestrian" speed="5.56" length="12.22" shape="1442.33,377.19 1439.83,377.56 1438.06,376.31 1437.02,373.45 1436.72,368.98"/>
    </edge>
    <edge id=":1114113633_2" function="internal">
        <lane id=":1114113633_2_0" index="0" allow="delivery bicycle pedestrian" speed="5.56" length="5.09" shape="1442.33,377.19 1441.04,376.30 1440.62,375.42 1441.07,374.56 1442.39,373.71"/>
    </edge>
    <edge id=":1114113633_3" function="internal">
        <lane id=":1114113633_3_0" index="0" allow="delivery bicycle pedestrian" speed="5.56" length="5.13" shape="1439.91,370.42 1440.04,372.25 1440.50,373.41 1441.28,373.90 1442.39,373.71"/>
    </edge>
    <edge id=":1114113633_4" function="internal">
        <lane id=":1114113633_4_0" index="0" allow="delivery bicycle pedestrian" speed="5.56" length="10.37" shape="1439.91,370.42 1439.51,372.95 1438.40,375.09 1436.58,376.83 1434.04,378.19"/>
    </edge>
    <edge id=":1114113633_5" function="internal">
        <lane id=":1114113633_5_0" index="0" allow="delivery bicycle pedestrian" speed="5.56" length="5.10" shape="1439.91,370.42 1438.57,371.25 1437.59,371.29 1436.98,370.53 1436.72,368.98"/>
    </edge>
    <edge id=":1114113633_6" function="internal">
        <lane id=":1114113633_6_0" index="0" allow="delivery bicycle pedestrian" speed="5.56" length="7.83" shape="1432.85,375.22 1434.52,374.25 1435.73,372.89 1436.46,371.14 1436.72,368.98"/>
    </edge>
    <edge id=":1114113633_7" function="internal">
        <lane id=":1114113633_7_0" index="0" allow="delivery bicycle pedestrian" speed="5.56" length="9.74" shape="1432.85,375.22 1435.60,374.48 1437.63,374.48 1439.65,374.47 1442.39,373.71"/>
    </edge>
    <edge id=":1114113633_8" function="internal">
        <lane id=":1114113633_8_0" index="0" allow="delivery bicycle pedestrian" speed="5.56" length="4.67" shape="1432.85,375.22 1434.26,375.51 1434.93,376.11 1434.85,377.00 1434.04,378.19"/>
    </edge>
    <edge id=":1114113638_0" function="internal">
        <lane id=":1114113638_0_0" index="0" allow="delivery bicycle pedestrian" speed="5.56" length="4.67" shape="772.20,566.58 770.79,566.29 770.12,565.70 770.19,564.81 771.00,563.62"/>
    </edge>
    <edge id=":1114113652_0" function="internal">
        <lane id=":1114113652_0_0" index="0" allow="delivery bicycle pedestrian" speed="5.56" length="7.17" shape="1057.18,550.93 1055.54,549.67 1054.19,549.14 1052.70,548.91 1050.59,548.53"/>
    </edge>
    <edge id=":1114113652_1" function="internal">
        <lane id=":1114113652_1_0" index="0" allow="delivery bicycle pedestrian" speed="5.56" length="9.14" shape="1057.18,550.93 1055.46,548.99 1054.81,547.28 1054.69,545.30 1054.60,542.57"/>
    </edge>
    <edge id=":1114113652_2" function="internal">
        <lane id=":1114113652_2_0" index="0" allow="delivery bicycle pedestrian" speed="5.56" length="4.75" shape="1057.18,550.93 1057.09,549.47 1057.49,548.66 1058.38,548.49 1059.77,548.97"/>
    </edge>
    <edge id=":1114113652_3" function="internal">
        <lane id=":1114113652_3_0" index="0" allow="delivery bicycle pedestrian" speed="5.56" length="7.24" shape="1057.79,542.32 1057.85,544.49 1057.92,546.06 1058.42,547.43 1059.77,548.97"/>
    </edge>
    <edge id=":1114113652_4" function="internal">
        <lane id=":1114113652_4_0" index="0" allow="delivery bicycle pedestrian" speed="5.56" length="11.82" shape="1057.79,542.32 1057.57,545.71 1056.30,547.88 1053.97,548.82 1050.59,548.53"/>
    </edge>
    <edge id=":1114113652_5" function="internal">
        <lane id=":1114113652_5_0" index="0" allow="delivery bicycle pedestrian" speed="5.56" length="4.67" shape="1057.79,542.32 1057.09,543.58 1056.32,544.04 1055.49,543.70 1054.60,542.57"/>
    </edge>
    <edge id=":1114113652_6" function="internal">
        <lane id=":1114113652_6_0" index="0" allow="delivery bicycle pedestrian" speed="5.56" length="5.41" shape="1051.30,545.42 1052.85,545.54 1053.92,545.11 1054.50,544.12 1054.60,542.57"/>
    </edge>
    <edge id=":1114113652_7" function="internal">
        <lane id=":1114113652_7_0" index="0" allow="delivery bicycle pedestrian" speed="5.56" length="9.37" shape="1051.30,545.42 1054.04,545.97 1055.94,546.41 1057.65,547.25 1059.77,548.97"/>
    </edge>
    <edge id=":1114113652_8" function="internal">
        <lane id=":1114113652_8_0" index="0" allow="delivery bicycle pedestrian" speed="5.56" length="4.67" shape="1051.30,545.42 1052.29,546.46 1052.50,547.33 1051.94,548.02 1050.59,548.53"/>
    </edge>
    <edge id=":1114113658_0" function="internal">
        <lane id=":1114113658_0_0" index="0" allow="delivery bicycle pedestrian" speed="5.56" length="12.17" shape="1295.88,506.72 1283.99,509.31"/>
    </edge>
    <edge id=":1114113658_1" function="internal">
        <lane id=":1114113658_1_0" index="0" allow="delivery bicycle pedestrian" speed="5.56" length="13.13" shape="1295.88,506.72 1292.56,506.82 1289.70,505.83 1286.96,504.13 1284.00,502.15"/>
    </edge>
    <edge id=":1114113658_2" function="internal">
        <lane id=":1114113658_2_0" index="0" allow="delivery bicycle pedestrian" speed="5.56" length="4.67" shape="1295.88,506.72 1294.53,506.19 1293.97,505.49 1294.19,504.63 1295.19,503.59"/>
    </edge>
    <edge id=":1114113658_3" function="internal">
        <lane id=":1114113658_3_0" index="0" allow="delivery bicycle pedestrian" speed="5.56" length="10.86" shape="1285.69,499.44 1288.28,501.35 1290.20,502.90 1292.25,503.76 1295.19,503.59"/>
    </edge>
    <edge id=":1114113658_4" function="internal">
        <lane id=":1114113658_4_0" index="0" allow="delivery bicycle pedestrian" speed="5.56" length="16.40" shape="1285.69,499.44 1289.82,502.69 1290.91,505.42 1288.97,507.63 1283.99,509.31"/>
    </edge>
    <edge id=":1114113658_5" function="internal">
        <lane id=":1114113658_5_0" index="0" allow="delivery bicycle pedestrian" speed="5.56" length="4.67" shape="1285.69,499.44 1286.29,500.75 1286.20,501.64 1285.44,502.11 1284.00,502.15"/>
    </edge>
    <edge id=":1114113658_6" function="internal">
        <lane id=":1114113658_6_0" index="0" allow="delivery bicycle pedestrian" speed="5.56" length="6.70" shape="1283.30,506.19 1285.34,505.50 1286.13,504.60 1285.69,503.48 1284.00,502.15"/>
    </edge>
    <edge id=":1114113658_7" function="internal">
        <lane id=":1114113658_7_0" index="0" allow="delivery bicycle pedestrian" speed="5.56" length="12.17" shape="1283.30,506.19 1295.19,503.59"/>
    </edge>
    <edge id=":1114113658_8" function="internal">
        <lane id=":1114113658_8_0" index="0" allow="delivery bicycle pedestrian" speed="5.56" length="4.67" shape="1283.30,506.19 1284.65,506.71 1285.21,507.41 1284.99,508.28 1283.99,509.31"/>
    </edge>
    <edge id=":1114113667_0" function="internal">
        <lane id=":1114113667_0_0" index="0" allow="delivery bicycle pedestrian" speed="5.56" length="5.08" shape="788.65,563.33 787.92,562.12 786.99,561.42 785.86,561.23 784.54,561.55"/>
    </edge>
    <edge id=":1114113667_1" function="internal">
        <lane id=":1114113667_1_0" index="0" allow="delivery bicycle pedestrian" speed="5.56" length="10.26" shape="788.65,563.33 787.91,560.61 788.23,558.32 789.60,556.46 792.04,555.04"/>
    </edge>
    <edge id=":1114113667_2" function="internal">
        <lane id=":1114113667_2_0" index="0" allow="delivery bicycle pedestrian" speed="5.56" length="4.67" shape="788.65,563.33 788.91,561.91 789.48,561.23 790.38,561.28 791.59,562.06"/>
    </edge>
    <edge id=":1114113667_3" function="internal">
        <lane id=":1114113667_3_0" index="0" allow="delivery bicycle pedestrian" speed="5.56" length="5.02" shape="793.25,558.00 792.05,558.70 791.38,559.61 791.22,560.73 791.59,562.06"/>
    </edge>
    <edge id=":1114113667_4" function="internal">
        <lane id=":1114113667_4_0" index="0" allow="delivery bicycle pedestrian" speed="5.56" length="9.40" shape="793.25,558.00 784.54,561.55"/>
    </edge>
    <edge id=":1114113667_5" function="internal">
        <lane id=":1114113667_5_0" index="0" allow="delivery bicycle pedestrian" speed="5.56" length="4.67" shape="793.25,558.00 791.83,557.71 791.16,557.13 791.23,556.23 792.04,555.04"/>
    </edge>
    <edge id=":1114113667_6" function="internal">
        <lane id=":1114113667_6_0" index="0" allow="delivery bicycle pedestrian" speed="5.56" length="9.40" shape="783.33,558.59 792.04,555.04"/>
    </edge>
    <edge id=":1114113667_7" function="internal">
        <lane id=":1114113667_7_0" index="0" allow="delivery bicycle pedestrian" speed="5.56" length="10.17" shape="783.33,558.59 786.00,557.93 788.27,558.29 790.13,559.66 791.59,562.06"/>
    </edge>
    <edge id=":1114113667_8" function="internal">
        <lane id=":1114113667_8_0" index="0" allow="delivery bicycle pedestrian" speed="5.56" length="4.67" shape="783.33,558.59 784.75,558.88 785.42,559.47 785.35,560.36 784.54,561.55"/>
    </edge>
    <edge id=":1114113699_0" function="internal">
        <lane id=":1114113699_0_0" index="0" allow="delivery bicycle pedestrian" speed="5.56" length="4.67" shape="1225.72,467.12 1225.09,465.82 1225.15,464.93 1225.90,464.44 1227.34,464.36"/>
    </edge>
    <edge id=":1114113709_0" function="internal">
        <lane id=":1114113709_0_0" index="0" allow="delivery bicycle pedestrian" speed="5.56" length="4.67" shape="1382.61,354.25 1383.73,355.15 1384.05,355.99 1383.58,356.75 1382.31,357.43"/>
    </edge>
    <edge id=":1114113732_0" function="internal">
        <lane id=":1114113732_0_0" index="0" allow="delivery bicycle pedestrian" speed="5.56" length="4.67" shape="1305.06,473.93 1304.47,472.61 1304.55,471.72 1305.31,471.26 1306.76,471.21"/>
    </edge>
    <edge id=":1114113739_0" function="internal">
        <lane id=":1114113739_0_0" index="0" allow="delivery bicycle pedestrian" speed="5.56" length="4.67" shape="1187.53,494.83 1186.89,493.53 1186.94,492.64 1187.69,492.15 1189.13,492.05"/>
    </edge>
    <edge id=":1114113744_0" function="internal">
        <lane id=":1114113744_0_0" index="0" allow="delivery bicycle pedestrian" speed="5.56" length="12.19" shape="1345.06,496.00 1333.15,498.59"/>
    </edge>
    <edge id=":1114113744_1" function="internal">
        <lane id=":1114113744_1_0" index="0" allow="delivery bicycle pedestrian" speed="5.56" length="13.15" shape="1345.06,496.00 1341.73,496.11 1338.87,495.11 1336.12,493.41 1333.16,491.43"/>
    </edge>
    <edge id=":1114113744_2" function="internal">
        <lane id=":1114113744_2_0" index="0" allow="delivery bicycle pedestrian" speed="5.56" length="4.67" shape="1345.06,496.00 1343.72,495.47 1343.15,494.78 1343.38,493.91 1344.38,492.87"/>
    </edge>
    <edge id=":1114113744_3" function="internal">
        <lane id=":1114113744_3_0" index="0" allow="delivery bicycle pedestrian" speed="5.56" length="10.90" shape="1334.84,488.71 1337.43,490.62 1339.37,492.18 1341.42,493.04 1344.38,492.87"/>
    </edge>
    <edge id=":1114113744_4" function="internal">
        <lane id=":1114113744_4_0" index="0" allow="delivery bicycle pedestrian" speed="5.56" length="16.42" shape="1334.84,488.71 1338.98,491.97 1340.08,494.71 1338.13,496.91 1333.15,498.59"/>
    </edge>
    <edge id=":1114113744_5" function="internal">
        <lane id=":1114113744_5_0" index="0" allow="delivery bicycle pedestrian" speed="5.56" length="4.67" shape="1334.84,488.71 1335.44,490.02 1335.36,490.91 1334.60,491.38 1333.16,491.43"/>
    </edge>
    <edge id=":1114113744_6" function="internal">
        <lane id=":1114113744_6_0" index="0" allow="delivery bicycle pedestrian" speed="5.56" length="6.71" shape="1332.47,495.47 1334.50,494.78 1335.30,493.88 1334.85,492.76 1333.16,491.43"/>
    </edge>
    <edge id=":1114113744_7" function="internal">
        <lane id=":1114113744_7_0" index="0" allow="delivery bicycle pedestrian" speed="5.56" length="12.19" shape="1332.47,495.47 1344.38,492.87"/>
    </edge>
    <edge id=":1114113744_8" function="internal">
        <lane id=":1114113744_8_0" index="0" allow="delivery bicycle pedestrian" speed="5.56" length="4.67" shape="1332.47,495.47 1333.81,495.99 1334.37,496.69 1334.15,497.56 1333.15,498.59"/>
    </edge>
    <edge id=":1114113760_0" function="internal">
        <lane id=":1114113760_0_0" index="0" allow="delivery bicycle pedestrian" speed="5.56" length="4.67" shape="1210.85,396.55 1212.24,396.93 1212.88,397.56 1212.75,398.45 1211.87,399.59"/>
    </edge>
    <edge id=":1114113771_0" function="internal">
        <lane id=":1114113771_0_0" index="0" allow="delivery bicycle pedestrian" speed="5.56" length="8.10" shape="1035.78,464.94 1033.41,463.36 1031.40,462.36 1029.75,461.94 1028.46,462.10"/>
    </edge>
    <edge id=":1114113771_1" function="internal">
        <lane id=":1114113771_1_0" index="0" allow="delivery bicycle pedestrian" speed="5.56" length="13.63" shape="1035.78,464.94 1032.80,462.09 1032.01,459.52 1033.41,457.21 1036.99,455.17"/>
    </edge>
    <edge id=":1114113771_2" function="internal">
        <lane id=":1114113771_2_0" index="0" allow="delivery bicycle pedestrian" speed="5.56" length="4.67" shape="1035.78,464.94 1035.28,463.59 1035.44,462.70 1036.23,462.30 1037.67,462.36"/>
    </edge>
    <edge id=":1114113771_3" function="internal">
        <lane id=":1114113771_3_0" index="0" allow="delivery bicycle pedestrian" speed="5.56" length="5.89" shape="1038.19,458.14 1036.65,459.02 1036.04,460.01 1036.38,461.13 1037.67,462.36"/>
    </edge>
    <edge id=":1114113771_4" function="internal">
        <lane id=":1114113771_4_0" index="0" allow="delivery bicycle pedestrian" speed="5.56" length="10.51" shape="1038.19,458.14 1028.46,462.10"/>
    </edge>
    <edge id=":1114113771_5" function="internal">
        <lane id=":1114113771_5_0" index="0" allow="delivery bicycle pedestrian" speed="5.56" length="4.67" shape="1038.19,458.14 1036.78,457.85 1036.11,457.26 1036.18,456.37 1036.99,455.17"/>
    </edge>
    <edge id=":1114113771_6" function="internal">
        <lane id=":1114113771_6_0" index="0" allow="delivery bicycle pedestrian" speed="5.56" length="10.51" shape="1027.25,459.14 1036.99,455.17"/>
    </edge>
    <edge id=":1114113771_7" function="internal">
        <lane id=":1114113771_7_0" index="0" allow="delivery bicycle pedestrian" speed="5.56" length="11.33" shape="1027.25,459.14 1029.35,458.75 1031.79,459.16 1034.56,460.36 1037.67,462.36"/>
    </edge>
    <edge id=":1114113771_8" function="internal">
        <lane id=":1114113771_8_0" index="0" allow="delivery bicycle pedestrian" speed="5.56" length="4.67" shape="1027.25,459.14 1028.66,459.43 1029.34,460.02 1029.27,460.91 1028.46,462.10"/>
    </edge>
    <edge id=":1114113772_0" function="internal">
        <lane id=":1114113772_0_0" index="0" allow="delivery bicycle pedestrian" speed="5.56" length="9.43" shape="1369.39,462.68 1365.30,471.18"/>
    </edge>
    <edge id=":1114113772_1" function="internal">
        <lane id=":1114113772_1_0" index="0" allow="delivery bicycle pedestrian" speed="5.56" length="10.68" shape="1369.39,462.68 1367.73,465.14 1365.72,466.39 1363.35,466.43 1360.62,465.25"/>
    </edge>
    <edge id=":1114113772_2" function="internal">
        <lane id=":1114113772_2_0" index="0" allow="delivery bicycle pedestrian" speed="5.56" length="4.67" shape="1369.39,462.68 1368.15,463.41 1367.26,463.43 1366.71,462.72 1366.51,461.29"/>
    </edge>
    <edge id=":1114113772_3" function="internal">
        <lane id=":1114113772_3_0" index="0" allow="delivery bicycle pedestrian" speed="5.56" length="5.13" shape="1362.30,462.52 1363.61,463.09 1364.75,463.07 1365.71,462.47 1366.51,461.29"/>
    </edge>
    <edge id=":1114113772_4" function="internal">
        <lane id=":1114113772_4_0" index="0" allow="delivery bicycle pedestrian" speed="5.56" length="10.21" shape="1362.30,462.52 1364.56,464.34 1365.81,466.39 1366.06,468.67 1365.30,471.18"/>
    </edge>
    <edge id=":1114113772_5" function="internal">
        <lane id=":1114113772_5_0" index="0" allow="delivery bicycle pedestrian" speed="5.56" length="4.67" shape="1362.30,462.52 1362.90,463.83 1362.83,464.73 1362.07,465.20 1360.62,465.25"/>
    </edge>
    <edge id=":1114113772_6" function="internal">
        <lane id=":1114113772_6_0" index="0" allow="delivery bicycle pedestrian" speed="5.56" length="5.43" shape="1362.42,469.79 1362.78,468.51 1362.61,467.33 1361.89,466.24 1360.62,465.25"/>
    </edge>
    <edge id=":1114113772_7" function="internal">
        <lane id=":1114113772_7_0" index="0" allow="delivery bicycle pedestrian" speed="5.56" length="9.43" shape="1362.42,469.79 1366.51,461.29"/>
    </edge>
    <edge id=":1114113772_8" function="internal">
        <lane id=":1114113772_8_0" index="0" allow="delivery bicycle pedestrian" speed="5.56" length="4.67" shape="1362.42,469.79 1363.66,469.05 1364.55,469.04 1365.10,469.75 1365.30,471.18"/>
    </edge>
    <edge id=":1114113773_0" function="internal">
        <lane id=":1114113773_0_0" index="0" allow="delivery bicycle pedestrian" speed="5.56" length="4.73" shape="1063.81,555.76 1062.52,555.79 1061.45,556.15 1060.59,556.85 1059.95,557.87"/>
    </edge>
    <edge id=":1114113773_1" function="internal">
        <lane id=":1114113773_1_0" index="0" allow="delivery bicycle pedestrian" speed="5.56" length="8.29" shape="1063.81,555.76 1061.53,555.25 1060.18,554.28 1059.02,552.89 1057.32,551.07"/>
    </edge>
    <edge id=":1114113773_2" function="internal">