<?xml version="1.0" encoding="UTF-8"?>

<configuration xmlns:xsi="http://www.w3.org/2001/XMLSchema-instance" xsi:noNamespaceSchemaLocation="http://sumo.dlr.de/xsd/polyconvertConfiguration.xsd">

    <input>
        <net-file value="/home/joseph/Projects/ConfidenceRange/Programs/osm2sumo/EdgeIRTSystemX/EdgeIRTSystemX.net.xml"/>
        <osm-files value="EdgeIRTSystemX_bbox.osm.xml"/>
        <osm.keep-full-type value="false"/>
        <type-file value="/home/joseph/Projects/ConfidenceRange/Programs/osm2sumo/typemap/Polyconvert.typ.xml"/>
    </input>

    <output>
        <output-file value="/home/joseph/Projects/ConfidenceRange/Programs/osm2sumo/EdgeIRTSystemX/EdgeIRTSystemX.poly.xml"/>
    </output>

</configuration>
